  
       XFOIL         Version 6.99
  
 Calculated polar for: natafoil                                        
  
 1 1 Reynolds number fixed          Mach number fixed         
  
 xtrf =   1.000 (top)        1.000 (bottom)  
 Mach =   0.500     Re =    31.000 e 6     Ncrit =   9.000
  
   alpha    CL        CD       CDp       CM     Top_Xtr  Bot_Xtr
  ------ -------- --------- --------- -------- -------- --------
  -5.000  -0.1568   0.00720   0.00312  -0.0146   0.2637   0.0934
  -4.800  -0.1260   0.00706   0.00300  -0.0144   0.2619   0.1028
  -4.600  -0.0954   0.00686   0.00284  -0.0143   0.2610   0.1191
  -4.400  -0.0645   0.00670   0.00271  -0.0141   0.2605   0.1331
  -4.200  -0.0338   0.00653   0.00258  -0.0140   0.2596   0.1503
  -4.000  -0.0035   0.00630   0.00241  -0.0139   0.2585   0.1772
  -3.800   0.0269   0.00610   0.00227  -0.0138   0.2571   0.2026
  -3.600   0.0499   0.00479   0.00138  -0.0135   0.2555   0.3760
  -3.400   0.0807   0.00466   0.00130  -0.0134   0.2543   0.3975
  -3.200   0.1125   0.00465   0.00130  -0.0133   0.2538   0.4033
  -3.000   0.1444   0.00466   0.00132  -0.0133   0.2531   0.4064
  -2.800   0.1762   0.00467   0.00133  -0.0133   0.2520   0.4100
  -2.600   0.2080   0.00469   0.00136  -0.0133   0.2507   0.4129
  -2.400   0.2399   0.00473   0.00140  -0.0133   0.2492   0.4144
  -2.200   0.2718   0.00476   0.00143  -0.0133   0.2478   0.4173
  -2.000   0.3037   0.00477   0.00145  -0.0133   0.2473   0.4202
  -1.800   0.3357   0.00480   0.00148  -0.0133   0.2465   0.4215
  -1.600   0.3678   0.00484   0.00152  -0.0134   0.2456   0.4219
  -1.400   0.3998   0.00489   0.00156  -0.0134   0.2445   0.4221
  -1.200   0.4318   0.00495   0.00161  -0.0135   0.2430   0.4223
  -1.000   0.4638   0.00500   0.00166  -0.0135   0.2413   0.4224
  -0.800   0.4961   0.00503   0.00170  -0.0136   0.2409   0.4225
  -0.600   0.5283   0.00507   0.00174  -0.0137   0.2403   0.4226
  -0.400   0.5606   0.00512   0.00179  -0.0138   0.2395   0.4227
  -0.200   0.5927   0.00518   0.00184  -0.0138   0.2382   0.4227
   0.000   0.6249   0.00524   0.00190  -0.0139   0.2369   0.4232
   0.200   0.6571   0.00530   0.00197  -0.0140   0.2351   0.4237
   0.400   0.6896   0.00534   0.00201  -0.0141   0.2347   0.4244
   0.600   0.7221   0.00539   0.00206  -0.0142   0.2341   0.4250
   0.800   0.7546   0.00544   0.00212  -0.0143   0.2332   0.4257
   1.000   0.7870   0.00550   0.00219  -0.0143   0.2321   0.4263
   1.200   0.8195   0.00558   0.00227  -0.0144   0.2308   0.4268
   1.400   0.8520   0.00565   0.00235  -0.0145   0.2292   0.4273
   1.600   0.8848   0.00571   0.00241  -0.0146   0.2284   0.4277
   1.800   0.9177   0.00577   0.00248  -0.0147   0.2279   0.4281
   2.000   0.9506   0.00583   0.00255  -0.0148   0.2271   0.4285
   2.200   0.9835   0.00591   0.00263  -0.0148   0.2261   0.4289
   2.400   1.0163   0.00600   0.00273  -0.0149   0.2248   0.4292
   2.600   1.0492   0.00609   0.00283  -0.0149   0.2234   0.4295
   2.800   1.0823   0.00617   0.00292  -0.0150   0.2224   0.4297
   3.000   1.1157   0.00624   0.00300  -0.0151   0.2218   0.4299
   3.200   1.1491   0.00632   0.00309  -0.0151   0.2210   0.4301
   3.400   1.1826   0.00640   0.00318  -0.0152   0.2203   0.4303
   3.600   1.2159   0.00651   0.00330  -0.0152   0.2190   0.4304
   3.800   1.2492   0.00663   0.00342  -0.0152   0.2178   0.4305
   4.000   1.2827   0.00674   0.00354  -0.0152   0.2164   0.4306
   4.200   1.3167   0.00682   0.00364  -0.0152   0.2159   0.4307
   4.400   1.3507   0.00691   0.00375  -0.0152   0.2153   0.4307
   4.600   1.3846   0.00702   0.00387  -0.0152   0.2144   0.4310
   4.800   1.4186   0.00713   0.00400  -0.0152   0.2134   0.4317
   5.000   1.4524   0.00727   0.00415  -0.0151   0.2123   0.4324
   5.200   1.4862   0.00741   0.00431  -0.0151   0.2108   0.4333
   5.400   1.5206   0.00753   0.00445  -0.0150   0.2101   0.4340
   5.600   1.5551   0.00764   0.00458  -0.0149   0.2094   0.4347
   5.800   1.5897   0.00776   0.00472  -0.0149   0.2087   0.4352
   6.000   1.6242   0.00790   0.00488  -0.0147   0.2078   0.4357
   6.200   1.6586   0.00806   0.00507  -0.0146   0.2068   0.4362
   6.400   1.6928   0.00824   0.00527  -0.0144   0.2056   0.4366
   6.600   1.7273   0.00842   0.00547  -0.0143   0.2044   0.4370
   6.800   1.7624   0.00857   0.00564  -0.0141   0.2038   0.4374
   7.000   1.7975   0.00873   0.00582  -0.0139   0.2031   0.4376
   7.200   1.8324   0.00891   0.00603  -0.0137   0.2021   0.4379
   7.400   1.8671   0.00911   0.00626  -0.0134   0.2012   0.4381
   7.600   1.9016   0.00935   0.00652  -0.0132   0.2002   0.4383
   7.800   1.9357   0.00961   0.00681  -0.0128   0.1989   0.4385
   8.000   1.9709   0.00982   0.00704  -0.0125   0.1982   0.4386
   8.200   2.0061   0.01004   0.00729  -0.0122   0.1975   0.4387
   8.400   2.0400   0.01034   0.00762  -0.0118   0.1958   0.4388
   8.600   2.0753   0.01058   0.00789  -0.0115   0.1957   0.4389
   8.800   2.1091   0.01090   0.00825  -0.0110   0.1948   0.4390
   9.000   2.1405   0.01138   0.00876  -0.0105   0.1929   0.4397
   9.200   2.1743   0.01172   0.00915  -0.0100   0.1919   0.4404
   9.400   2.2074   0.01212   0.00958  -0.0095   0.1914   0.4412
   9.600   2.2396   0.01257   0.01008  -0.0090   0.1907   0.4420
   9.800   2.2692   0.01319   0.01074  -0.0084   0.1896   0.4428
  10.000   2.2986   0.01383   0.01143  -0.0078   0.1895   0.4434
