  
       XFOIL         Version 6.99
  
 Calculated polar for: NACA 4508                                       
  
 1 1 Reynolds number fixed          Mach number fixed         
  
 xtrf =   1.000 (top)        1.000 (bottom)  
 Mach =   0.200     Re =    18.000 e 6     Ncrit =   9.000
  
   alpha    CL        CD       CDp       CM     Top_Xtr  Bot_Xtr
  ------ -------- --------- --------- -------- -------- --------
   0.000   0.5312   0.00457   0.00051  -0.1276   0.4490   0.1350
   1.000   0.6435   0.00504   0.00074  -0.1274   0.3233   0.2119
   2.000   0.7540   0.00572   0.00111  -0.1270   0.1836   0.2961
   3.000   0.8643   0.00640   0.00157  -0.1264   0.0752   0.3922
   4.000   0.9758   0.00691   0.00207  -0.1259   0.0276   0.5084
   5.000   1.0876   0.00729   0.00264  -0.1254   0.0127   0.6841
