  
       XFOIL         Version 6.99
  
 Calculated polar for: test/data/NATAFOIL.dat                          
  
 1 1 Reynolds number fixed          Mach number fixed         
  
 xtrf =   1.000 (top)        1.000 (bottom)  
 Mach =   0.500     Re =    31.000 e 6     Ncrit =   9.000  9.000
  
   alpha    CL        CD       CDp       CM     Top_Xtr  Bot_Xtr  Top_Itr  Bot_Itr
  ------ -------- --------- --------- -------- -------- -------- -------- --------
  -5.000  -0.1567   0.00721  -0.00767  -0.0146   0.2643   0.0939  68.4233 202.9899
  -4.800  -0.1261   0.00704  -0.00753  -0.0144   0.2629   0.1058  68.6356 205.3618
  -4.600  -0.0954   0.00688  -0.00742  -0.0143   0.2610   0.1194  68.9175 207.7739
  -4.400  -0.0647   0.00670  -0.00735  -0.0141   0.2602   0.1358  69.0379 210.3862
  -4.200  -0.0341   0.00650  -0.00732  -0.0140   0.2596   0.1553  69.1219 213.1486
  -4.000  -0.0035   0.00631  -0.00731  -0.0139   0.2588   0.1779  69.2446 216.0470
  -3.800   0.0268   0.00607  -0.00735  -0.0138   0.2577   0.2077  69.4009 219.5585
  -3.600   0.0496   0.00471  -0.00802  -0.0135   0.2566   0.3857  69.5731 240.3765
  -3.400   0.0809   0.00467  -0.00800  -0.0134   0.2548   0.3978  69.8330 241.9340
  -3.200   0.1126   0.00466  -0.00799  -0.0134   0.2536   0.4040  70.0199 242.7389
  -3.000   0.1445   0.00467  -0.00799  -0.0133   0.2531   0.4063  70.0962 243.0288
  -2.800   0.1764   0.00467  -0.00802  -0.0133   0.2523   0.4106  70.2123 243.5794
  -2.600   0.2083   0.00470  -0.00807  -0.0133   0.2513   0.4129  70.3676 243.8794
  -2.400   0.2402   0.00474  -0.00812  -0.0133   0.2501   0.4140  70.5515 244.0209
  -2.200   0.2719   0.00476  -0.00820  -0.0133   0.2485   0.4182  70.7944 244.5547
  -2.000   0.3038   0.00479  -0.00829  -0.0133   0.2471   0.4205  71.0117 244.8366
  -1.800   0.3359   0.00482  -0.00841  -0.0134   0.2466   0.4212  71.0836 244.9288
  -1.600   0.3680   0.00486  -0.00855  -0.0134   0.2459   0.4214  71.1933 244.9559
  -1.400   0.4001   0.00490  -0.00870  -0.0135   0.2449   0.4215  71.3431 244.9702
  -1.200   0.4321   0.00495  -0.00887  -0.0135   0.2438   0.4216  71.5199 244.9820
  -1.000   0.4641   0.00501  -0.00904  -0.0136   0.2424   0.4217  71.7419 244.9919
  -0.800   0.4962   0.00506  -0.00923  -0.0136   0.2407   0.4218  72.0006 245.0020
  -0.600   0.5284   0.00510  -0.00946  -0.0137   0.2403   0.4223  72.0672 245.0722
  -0.400   0.5607   0.00514  -0.00970  -0.0138   0.2396   0.4229  72.1687 245.1477
  -0.200   0.5929   0.00518  -0.00995  -0.0139   0.2387   0.4236  72.3097 245.2268
   0.000   0.6251   0.00524  -0.01021  -0.0140   0.2376   0.4242  72.4804 245.3060
   0.200   0.6573   0.00530  -0.01047  -0.0140   0.2364   0.4248  72.6805 245.3805
   0.400   0.6896   0.00536  -0.01076  -0.0141   0.2347   0.4253  72.9379 245.4481
   0.600   0.7220   0.00541  -0.01107  -0.0142   0.2340   0.4258  73.0477 245.5104
   0.800   0.7546   0.00546  -0.01140  -0.0143   0.2334   0.4263  73.1403 245.5681
   1.000   0.7871   0.00552  -0.01174  -0.0144   0.2326   0.4267  73.2710 245.6223
   1.200   0.8197   0.00558  -0.01209  -0.0145   0.2316   0.4271  73.4350 245.6732
   1.400   0.8522   0.00566  -0.01245  -0.0145   0.2304   0.4275  73.6233 245.7206
   1.600   0.8847   0.00574  -0.01283  -0.0146   0.2290   0.4279  73.8591 245.7643
   1.800   0.9175   0.00581  -0.01324  -0.0147   0.2279   0.4282  74.0264 245.8046
   2.000   0.9505   0.00587  -0.01367  -0.0148   0.2274   0.4285  74.1106 245.8400
   2.200   0.9835   0.00593  -0.01412  -0.0149   0.2267   0.4287  74.2295 245.8695
   2.400   1.0164   0.00601  -0.01458  -0.0149   0.2257   0.4289  74.3832 245.8949
   2.600   1.0493   0.00610  -0.01505  -0.0150   0.2246   0.4291  74.5643 245.9169
   2.800   1.0822   0.00620  -0.01554  -0.0150   0.2233   0.4292  74.7817 245.9359
   3.000   1.1153   0.00630  -0.01605  -0.0151   0.2219   0.4293  75.0054 245.9521
   3.200   1.1488   0.00637  -0.01661  -0.0151   0.2214   0.4295  75.0817 245.9659
   3.400   1.1823   0.00645  -0.01720  -0.0152   0.2208   0.4296  75.1882 245.9776
   3.600   1.2157   0.00654  -0.01780  -0.0152   0.2199   0.4296  75.3268 245.9873
   3.800   1.2492   0.00665  -0.01841  -0.0152   0.2189   0.4297  75.4940 245.9955
   4.000   1.2825   0.00677  -0.01904  -0.0152   0.2177   0.4299  75.6916 246.0269
   4.200   1.3159   0.00689  -0.01969  -0.0152   0.2162   0.4306  75.9338 246.1048
   4.400   1.3497   0.00699  -0.02041  -0.0152   0.2155   0.4313  76.0538 246.1938
   4.600   1.3838   0.00708  -0.02116  -0.0152   0.2149   0.4321  76.1509 246.2887
   4.800   1.4178   0.00719  -0.02193  -0.0151   0.2142   0.4328  76.2751 246.3809
   5.000   1.4518   0.00731  -0.02273  -0.0151   0.2133   0.4335  76.4251 246.4628
   5.200   1.4856   0.00744  -0.02355  -0.0150   0.2123   0.4341  76.5988 246.5334
   5.400   1.5194   0.00760  -0.02440  -0.0149   0.2110   0.4346  76.8106 246.5958
   5.600   1.5534   0.00775  -0.02528  -0.0148   0.2098   0.4350  77.0178 246.6526
   5.800   1.5879   0.00787  -0.02625  -0.0147   0.2092   0.4355  77.1134 246.7046
   6.000   1.6225   0.00800  -0.02725  -0.0146   0.2085   0.4358  77.2301 246.7517
   6.200   1.6570   0.00815  -0.02829  -0.0145   0.2077   0.4362  77.3673 246.7938
   6.400   1.6914   0.00832  -0.02935  -0.0143   0.2068   0.4365  77.5227 246.8316
   6.600   1.7255   0.00851  -0.03044  -0.0141   0.2057   0.4368  77.6991 246.8650
   6.800   1.7595   0.00872  -0.03156  -0.0139   0.2045   0.4370  77.9136 246.8925
   7.000   1.7941   0.00891  -0.03277  -0.0137   0.2036   0.4372  78.0618 246.9160
   7.200   1.8290   0.00909  -0.03405  -0.0134   0.2029   0.4373  78.1797 246.9360
   7.400   1.8637   0.00928  -0.03537  -0.0132   0.2022   0.4375  78.3110 246.9529
   7.600   1.8982   0.00950  -0.03673  -0.0129   0.2013   0.4376  78.4554 246.9671
   7.800   1.9325   0.00975  -0.03813  -0.0125   0.2004   0.4377  78.6096 246.9791
   8.000   1.9662   0.01003  -0.03954  -0.0122   0.1994   0.4378  78.7799 246.9891
   8.200   1.9994   0.01036  -0.04098  -0.0118   0.1983   0.4378  78.9856 246.9973
   8.400   2.0336   0.01063  -0.04256  -0.0114   0.1973   0.4383  79.1474 247.0535
   8.600   2.0672   0.01094  -0.04416  -0.0109   0.1962   0.4390  79.3442 247.1406
   8.800   2.1002   0.01130  -0.04579  -0.0105   0.1952   0.4398  79.5108 247.2378
   9.000   2.1322   0.01172  -0.04742  -0.0099   0.1943   0.4407  79.6678 247.3376
   9.200   2.1628   0.01222  -0.04903  -0.0093   0.1934   0.4414  79.8330 247.4278
   9.400   2.1916   0.01284  -0.05058  -0.0087   0.1924   0.4421  80.0096 247.5043
   9.600   2.2206   0.01346  -0.05223  -0.0081   0.1916   0.4426  80.1446 247.5705
   9.800   2.2454   0.01435  -0.05365  -0.0075   0.1907   0.4431  80.3084 247.6278
